1
Lattice="15.0 0.0 0.0 0.0 15.0 0.0 0.0 0.0 15.0" Properties=species:S:1:pos:R:3:initial_magmoms:R:1:forces:R:3 energy=-3.195948600769043 free_energy=-3.195948600769043 stress="0.0 0.0 0.0 0.0 0.0 0.0 0.0 0.0 0.0" pbc="T T T"
O        7.50000000       7.50000000       7.50000000       0.00000000      -0.00000000      -0.00000000      -0.00000000
