2
Lattice="15.0 0.0 0.0 0.0 15.0 0.0 0.0 0.0 15.0" Properties=species:S:1:pos:R:3:initial_magmoms:R:1:forces:R:3 energy=-8.950783729553223 free_energy=-8.950783729553223 stress="0.0 0.0 0.0 0.0 0.0 0.0 0.0 0.0 -3.047039038847612e-07" pbc="T T T"
O        7.50000000       7.50000000       7.01432020       0.00000000      -0.00000000      -0.00000000      -0.00105870
H        7.50000000       7.50000000       7.98567980       0.00000000      -0.00000000      -0.00000000       0.00105870
