36
Lattice="17.580196442054586 0.0 0.0 8.790098221027293 15.224896722340073 0.0 0.0 0.0 29.354170286975343" Properties=species:S:1:pos:R:3:tags:I:1:initial_magmoms:R:1 pbc="T T F"
Pt       0.00000000       0.00000000       7.50000000        1       0.00000000
Pt       5.86006548       0.00000000       7.50000000        1       0.00000000
Pt      11.72013096       0.00000000       7.50000000        1       0.00000000
Pt       2.93003274       5.07496557       7.50000000        1       0.00000000
Pt       8.79009822       5.07496557       7.50000000        1       0.00000000
Pt      14.65016370       5.07496557       7.50000000        1       0.00000000
Pt       5.86006548      10.14993115       7.50000000        1       0.00000000
Pt      11.72013096      10.14993115       7.50000000        1       0.00000000
Pt      17.58019644      10.14993115       7.50000000        1       0.00000000
Pt       2.93003274       1.69165519      12.28472343        2       0.00000000
Pt       8.79009822       1.69165519      12.28472343        2       0.00000000
Pt      14.65016370       1.69165519      12.28472343        2       0.00000000
Pt       5.86006548       6.76662077      12.28472343        2       0.00000000
Pt      11.72013096       6.76662077      12.28472343        2       0.00000000
Pt      17.58019644       6.76662077      12.28472343        2       0.00000000
Pt       8.79009822      11.84158634      12.28472343        2       0.00000000
Pt      14.65016370      11.84158634      12.28472343        2       0.00000000
Pt      20.51022918      11.84158634      12.28472343        2       0.00000000
Pt      -0.00000000       3.38331038      17.06944686        3       0.00000000
Pt       5.86006548       3.38331038      17.06944686        3       0.00000000
Pt      11.72013096       3.38331038      17.06944686        3       0.00000000
Pt       2.93003274       8.45827596      17.06944686        3       0.00000000
Pt       8.79009822       8.45827596      17.06944686        3       0.00000000
Pt      14.65016370       8.45827596      17.06944686        3       0.00000000
Pt       5.86006548      13.53324153      17.06944686        3       0.00000000
Pt      11.72013096      13.53324153      17.06944686        3       0.00000000
Pt      17.58019644      13.53324153      17.06944686        3       0.00000000
Pt       0.00000000       0.00000000      21.85417029        4       0.00000000
Pt       5.86006548       0.00000000      21.85417029        4       0.00000000
Pt      11.72013096       0.00000000      21.85417029        4       0.00000000
Pt       2.93003274       5.07496557      21.85417029        4       0.00000000
Pt       8.79009822       5.07496557      21.85417029        4       0.00000000
Pt      14.65016370       5.07496557      21.85417029        4       0.00000000
Pt       5.86006548      10.14993115      21.85417029        4       0.00000000
Pt      11.72013096      10.14993115      21.85417029        4       0.00000000
Pt      17.58019644      10.14993115      21.85417029        4       0.00000000
