2
Lattice="15.0 0.0 0.0 0.0 15.0 0.0 0.0 0.0 15.0" Properties=species:S:1:pos:R:3:initial_magmoms:R:1:forces:R:3 energy=-6.6929612159729 free_energy=-6.6929612159729 stress="0.0 0.0 0.0 0.0 0.0 0.0 0.0 0.0 4.182162300620314e-06" pbc="T T T"
H        7.50000000       7.50000000       7.12581748       0.00000000      -0.00000000      -0.00000000       0.01886082
H        7.50000000       7.50000000       7.87418252       0.00000000      -0.00000000      -0.00000000      -0.01886082
